Circuit: * C:\Users\Aleksa\Documents\EEVengers\Hardware\The Next Generation\FE2\FE Rev.4 SIM\Rev4_Buffer_Amp.asc

WARNING: Node N014 is floating.

Early termination of direct N-R iteration.
Direct Newton iteration failed to find .op point.  (Use ".option noopiter" to skip.)
Starting Gmin stepping
Gmin = 10
Gmin = 1.07374
Gmin = 0.115292
Gmin = 0.0123794
Gmin = 0.00132923
Gmin = 0.000142725
Gmin = 1.5325e-005
Gmin = 1.6455e-006
vernier = 0.5
vernier = 0.25
vernier = 0.125
Gmin = 4.31359e-007
vernier = 0.0625
vernier = 0.03125
vernier = 0.015625
vernier = 0.0208333
Gmin = 4.1866e-007
vernier = 0.0277778
Gmin = 3.93372e-007
vernier = 0.037037
vernier = 0.0493827
Gmin = 3.54382e-007
vernier = 0.0658435
vernier = 0.0877914
Gmin = 3.00201e-007
vernier = 0.117055
Gmin = 2.31493e-007
vernier = 0.156073
vernier = 0.208098
Gmin = 1.50209e-007
vernier = 0.277464
vernier = 0.369952
Gmin = 7.60417e-008
vernier = 0.493269
Gmin = 2.65687e-008
vernier = 0.657691
vernier = 0.876922
Gmin = 4.82351e-009
vernier = 1
Gmin = 5.44392e-010
Gmin = 5.84537e-011
Gmin = 6.27641e-012
Gmin = 6.73925e-013
Gmin = 0
Gmin stepping succeeded in finding the operating point.


Date: Wed Jan 13 15:09:26 2021
Total elapsed time: 0.248 seconds.

tnom = 27
temp = 27
method = modified trap
totiter = 9275
traniter = 8125
tranpoints = 3702
accept = 2474
rejected = 1228
matrix size = 41
fillins = 136
solver = Normal
Thread vector: 8.0/5.6[4] 2.1/2.1[1] 1.8/1.4[4] 0.1/0.9[1]  2592/500
Matrix Compiler1: 18.13 KB object code size  2.3/0.9/[0.8]
Matrix Compiler2: 6.37 KB object code size  0.4/0.5/[0.3]

