Circuit: * C:\Users\Aleksa\Downloads\Rev4_Buffer_Amp.asc

C6: both pins shorted together -- ignoring.
WARNING: Node N014 is floating.

WARNING: Less than two connections to node NC_01.  This node is used by D1.
WARNING: Less than two connections to node NC_02.  This node is used by D3.
Direct Newton iteration failed to find .op point.  (Use ".option noopiter" to skip.)
Starting Gmin stepping
Gmin = 10
Gmin = 1.07374
vernier = 0.5
vernier = 0.25
vernier = 0.125
vernier = 0.0625
vernier = 0.03125
Gmin = 1.0412
vernier = 0.015625
vernier = 0.0078125
Gmin = 1.0132
vernier = 0.00390625
vernier = 0.00195313
Gmin = 1.00827
vernier = 0.00260417
vernier = 0.00130208
Gmin = 1.00515
vernier = 0.000651042
vernier = 0.000868055
vernier = 0.000434028
Gmin = 1.00434
vernier = 0.000578703
vernier = 0.000434027
Gmin = 1.00339
Gmin = 0
Gmin stepping failed

Starting source stepping with srcstepmethod=0
Source Step = 3.0303%
Source Step = 33.3333%
Source Step = 63.6364%
Source Step = 93.9394%
Source stepping succeeded in finding the operating point.


Date: Fri Apr  3 10:37:08 2020
Total elapsed time: 0.282 seconds.

tnom = 27
temp = 27
method = modified trap
totiter = 7072
traniter = 2217
tranpoints = 1089
accept = 1059
rejected = 30
matrix size = 41
fillins = 67
solver = Normal
Thread vector: 5.5/4.5[3] 3.1/1.7[3] 1.4/1.6[1] 0.1/0.8[1]  2592/500
Matrix Compiler1:     331 opcodes  0.9/[0.4]/0.6
Matrix Compiler2: 4.76 KB object code size  0.3/0.5/[0.3]

