Circuit: * C:\users\aleksa\My Documents\DSO\FE\FFE\Sims\Draft1.asc

Direct Newton iteration failed to find .op point.  (Use ".option noopiter" to skip.)
Starting Gmin stepping
Gmin = 10
Gmin = 1.07374
vernier = 0.5
vernier = 0.25
vernier = 0.125
vernier = 0.0625
vernier = 0.03125
Gmin = 1.0412
vernier = 0.015625
vernier = 0.0078125
Gmin = 1.0132
vernier = 0.00390625
vernier = 0.00195313
Gmin = 1.00827
vernier = 0.00260417
vernier = 0.00130208
Gmin = 1.00515
vernier = 0.000651042
vernier = 0.000868055
vernier = 0.000434028
Gmin = 1.00434
vernier = 0.000578703
vernier = 0.000434027
Gmin = 1.00339
Singular matrix:  Check node u1:n013
   Iteration No. 7
Gmin = 0
Singular matrix:  Check node u1:n013
   Iteration No. 1
Gmin stepping failed

Starting source stepping with srcstepmethod=0
Source Step = 3.0303%
Source Step = 33.3333%
Source Step = 63.6364%
Source Step = 93.9394%
Source stepping succeeded in finding the operating point.


Date: Sat Mar 24 16:29:14 2018
Total elapsed time: 0.114 seconds.

tnom = 27
temp = 27
method = modified trap
totiter = 6774
traniter = 2082
tranpoints = 1042
accept = 1042
rejected = 0
matrix size = 19
fillins = 33
solver = Normal
Matrix Compiler1: 2.89 KB object code size  1.1/0.6/[0.5]
Matrix Compiler2: off  [0.6]/0.7/0.7

