Circuit: * C:\Users\Aleksa\Documents\DSO\FE\FFE\Sims\FE.asc

WARNING: Node N004 is floating.

WARNING: Less than two connections to node NC_01.  This node is used by R3.
WARNING: Less than two connections to node NC_04.  This node is used by R16.
Direct Newton iteration failed to find .op point.  (Use ".option noopiter" to skip.)
Starting Gmin stepping
Gmin = 10
Gmin = 1.07374
vernier = 0.5
vernier = 0.25
vernier = 0.125
vernier = 0.0625
vernier = 0.03125
Gmin = 1.0412
vernier = 0.015625
vernier = 0.0078125
Gmin = 1.0132
vernier = 0.00390625
vernier = 0.00195313
Gmin = 1.00827
vernier = 0.00260417
vernier = 0.00130208
Gmin = 1.00515
vernier = 0.000651042
vernier = 0.000868055
vernier = 0.000434028
Gmin = 1.00434
vernier = 0.000578703
vernier = 0.000434027
Gmin = 1.00339
Singular matrix:  Check node u2:n013
   Iteration No. 7
Gmin = 0
Singular matrix:  Check node u2:n013
   Iteration No. 1
Gmin stepping failed

Starting source stepping with srcstepmethod=0
Source Step = 3.0303%
Singular matrix:  Check node u2:n013
   Iteration No. 7
Source Step = 33.3333%
Singular matrix:  Check node u2:n013
   Iteration No. 1
Singular matrix:  Check node u2:n013
   Iteration No. 1
Singular matrix:  Check node u2:n013
   Iteration No. 1
Singular matrix:  Check node u2:n013
   Iteration No. 1
Singular matrix:  Check node u2:n013
   Iteration No. 1
Singular matrix:  Check node u2:n013
   Iteration No. 1
Singular matrix:  Check node u2:n013
   Iteration No. 1
Starting source stepping with srcstepmethod=1
Source Step = 3.0303%
Source Step = 33.3333%
Source Step = 63.6364%
Source Step = 93.9394%
Source Step = 100%
Source Step = 100%
Source Step = 100%
Source Step = 100%
Source stepping succeeded in finding the operating point.


Date: Tue Oct 02 22:23:54 2018
Total elapsed time: 0.150 seconds.

tnom = 27
temp = 27
method = modified trap
totiter = 7018
traniter = 2138
tranpoints = 1059
accept = 1056
rejected = 3
matrix size = 32
fillins = 23
solver = Normal
Thread vector: 6.1/3.9[2] 2.0/1.6[2] 0.9/0.9[1] 0.1/0.7[1]  2592/500
Matrix Compiler1: 2.82 KB object code size  0.7/0.4/[0.2]
Matrix Compiler2: off  [0.3]/0.5/0.5

