Circuit: * C:\Users\Aleksa\Documents\DSO\FE\FE Test\Draft3.asc

WARNING: Node N002 is floating.

WARNING: Less than two connections to node N002.  This node is used by C1.
Direct Newton iteration for .op point succeeded.

Date: Sun Sep 30 22:13:59 2018
Total elapsed time: 0.060 seconds.

tnom = 27
temp = 27
method = modified trap
totiter = 2091
traniter = 2084
tranpoints = 1042
accept = 1042
rejected = 0
matrix size = 12
fillins = 0
solver = Normal
Matrix Compiler1: 526 bytes object code size  0.2/0.1/[0.1]
Matrix Compiler2: off  [0.1]/0.1/0.2

