Circuit: * C:\Users\Aleksa\Documents\DSO\FE\FFE Rev3\Draft1.asc

Direct Newton iteration failed to find .op point.  (Use ".option noopiter" to skip.)
Starting Gmin stepping
Gmin = 10
Gmin = 1.07374
vernier = 0.5
vernier = 0.25
vernier = 0.125
vernier = 0.0625
vernier = 0.03125
Gmin = 1.0412
vernier = 0.015625
vernier = 0.0078125
Gmin = 1.0132
vernier = 0.00390625
vernier = 0.00195313
Gmin = 1.00827
vernier = 0.00260417
vernier = 0.00130208
Gmin = 1.00515
vernier = 0.000651042
vernier = 0.000868055
vernier = 0.000434028
Gmin = 1.00434
vernier = 0.000578703
vernier = 0.000434027
Gmin = 1.00339
Gmin = 0
Gmin stepping failed

Starting source stepping with srcstepmethod=0
Source Step = 3.0303%
Source Step = 33.3333%
Source Step = 63.6364%
Source Step = 85.0379%
vernier = 0.015625
Source Step = 84.8722%
Source Step = 84.9018%
Source Step = 84.9313%
Source Step = 84.9609%
Source Step = 84.9905%
vernier = 0.00146484
Source Step = 85.029%
Source Step = 85.0734%
Source Step = 85.1178%
Source Step = 85.1622%
Source Step = 85.2066%
vernier = 0.00219727
Source Step = 85.262%
Source Step = 85.3286%
Source Step = 85.3952%
Source Step = 85.4618%
Source Step = 85.5284%
vernier = 0.0032959
Source Step = 85.6083%
Source Step = 85.7082%
Source Step = 85.808%
Source Step = 85.9079%
Source Step = 86.0078%
vernier = 0.00494385
Source Step = 86.1226%
Source Step = 86.2725%
Source Step = 86.4223%
Source Step = 86.5721%
Source Step = 86.7219%
vernier = 0.00741577
Source Step = 86.8867%
Source Step = 87.1114%
Source Step = 87.3361%
Source Step = 87.5609%
Source Step = 87.7856%
vernier = 0.0111237
Source Step = 88.0215%
Source Step = 88.3586%
Source Step = 88.6957%
Source Step = 89.0328%
Source Step = 89.3698%
Source Step = 89.7069%
vernier = 0.0166855
Source Step = 90.2126%
Source Step = 90.7182%
Source Step = 91.2238%
Source Step = 91.7294%
Source Step = 92.235%
vernier = 0.0250282
Source Step = 92.9682%
Source Step = 93.7266%
Source Step = 94.485%
Source Step = 95.2435%
Source Step = 96.0019%
vernier = 0.0375423
Source Step = 97.0637%
Source Step = 98.2014%
Source Step = 99.339%
Source stepping succeeded in finding the operating point.

Ignoring empty pin current: Ix(1:nodeminus)
Ignoring empty pin current: Ix(1:nodeplus)
Ignoring empty pin current: Ix(1:plus)
Ignoring empty pin current: Ix(1:minus)
Ignoring empty pin current: Ix(1:vt)
Ignoring empty pin current: Ix(1:vh)
Ignoring empty pin current: Ix(rout:101)
Ignoring empty pin current: Ix(rout:102)
Ignoring empty pin current: Ix(rout:201)
Ignoring empty pin current: Ix(rout:202)
Ignoring empty pin current: Ix(u2:pd)
Ignoring empty pin current: Ix(1:nodeminus)
Ignoring empty pin current: Ix(1:nodeplus)
Ignoring empty pin current: Ix(1:plus)
Ignoring empty pin current: Ix(1:minus)
Ignoring empty pin current: Ix(1:vt)
Ignoring empty pin current: Ix(1:vh)
Ignoring empty pin current: Ix(rout:101)
Ignoring empty pin current: Ix(rout:102)
Ignoring empty pin current: Ix(rout:201)
Ignoring empty pin current: Ix(rout:202)
Ignoring empty pin current: Ix(u2:pd)



Date: Mon Nov 19 21:03:49 2018
Total elapsed time: 1.010 seconds.

tnom = 27
temp = 27
method = modified trap
totiter = 9359
traniter = 2088
tranpoints = 1042
accept = 1042
rejected = 0
matrix size = 92
fillins = 187
solver = Normal
Thread vector: 12.7/7.6[2] 2.9/2.1[2] 5.2/4.6[2] 0.3/1.0[1]  2592/500
Matrix Compiler1: 16.42 KB object code size  3.1/1.6/[0.8]
Matrix Compiler2: 10.54 KB object code size  1.4/1.7/[0.7]

