Circuit: * C:\Users\Aleksa\Documents\DSO\FE\FFE Rev3\Sims\Rev3_Buffer_Amp_NoPreamp.asc

C8: both pins shorted together -- ignoring.
WARNING: Node N001 is floating.

Direct Newton iteration failed to find .op point.  (Use ".option noopiter" to skip.)
Starting Gmin stepping
Gmin = 10
Gmin = 1.07374
vernier = 0.5
vernier = 0.25
vernier = 0.125
vernier = 0.0625
vernier = 0.03125
Gmin = 1.0412
vernier = 0.015625
vernier = 0.0078125
Gmin = 1.0132
vernier = 0.00390625
vernier = 0.00195313
Gmin = 1.00827
vernier = 0.00260417
vernier = 0.00130208
Gmin = 1.00515
vernier = 0.000651042
vernier = 0.000868055
vernier = 0.000434028
Gmin = 1.00434
vernier = 0.000578703
vernier = 0.000434027
Gmin = 1.00339
Gmin = 0
Gmin stepping failed

Starting source stepping with srcstepmethod=0
Source Step = 3.0303%
Source Step = 33.3333%
Source Step = 63.6364%
Source Step = 93.9394%
Source stepping succeeded in finding the operating point.

Heightened Def Con from 2.19727e-016 to 1.95315e-011

Date: Sat Feb 02 16:31:40 2019
Total elapsed time: 0.320 seconds.

tnom = 27
temp = 27
method = modified trap
totiter = 6969
traniter = 2141
tranpoints = 1035
accept = 1029
rejected = 7
matrix size = 26
fillins = 29
solver = Normal
Matrix Compiler1: 3.91 KB object code size  0.9/0.4/[0.3]
Matrix Compiler2: 2.64 KB object code size  0.4/0.4/[0.3]

