Circuit: * C:\Users\Aleksa\Documents\DSO\FE\FE Test\Draft1.asc

Direct Newton iteration for .op point succeeded.

Date: Mon Jul 16 23:24:18 2018
Total elapsed time: 0.030 seconds.

tnom = 27
temp = 27
method = modified trap
totiter = 2086
traniter = 2082
tranpoints = 1042
accept = 1042
rejected = 0
matrix size = 5
fillins = 0
solver = Normal
Matrix Compiler1:       7 opcodes  0.0/[0.0]/0.1
Matrix Compiler2: off  [0.0]/0.1/0.1

