Circuit: * C:\Users\Aleksa\Documents\DSO\FE\FE Test\LTC3536.asc

Direct Newton iteration for .op point succeeded.

Date: Sat Jun 09 12:27:04 2018
Total elapsed time: 37.907 seconds.

tnom = 27
temp = 27
method = modified trap
totiter = 3665605
traniter = 3665586
tranpoints = 1181866
accept = 900067
rejected = 281799
matrix size = 65
fillins = 5
solver = Normal
Thread vector: 7.3/4.5[3] 3.9/2.4[3] 1.0/0.8[3] 0.2/0.7[1]  2592/500
Matrix Compiler1: 1.85 KB object code size  0.8/0.4/[0.3]
Matrix Compiler2: 3.83 KB object code size  0.5/0.6/[0.4]

