Circuit: * C:\Users\Aleksa\Documents\DSO\FE\FE Test\PGA_JFET_BUFFER.asc

WARNING: Less than two connections to node +IN.  This node is used by R10.
WARNING: Less than two connections to node -IN.  This node is used by R19.
Instance "m:u2:6": Length shorter than recommended for a level 2 MOSFET.
Instance "m:u2:5": Length shorter than recommended for a level 2 MOSFET.
Instance "m:u2:2": Length shorter than recommended for a level 2 MOSFET.
Instance "m:u2:1": Length shorter than recommended for a level 2 MOSFET.
Instance "m:u1:6": Length shorter than recommended for a level 2 MOSFET.
Instance "m:u1:5": Length shorter than recommended for a level 2 MOSFET.
Instance "m:u1:2": Length shorter than recommended for a level 2 MOSFET.
Instance "m:u1:1": Length shorter than recommended for a level 2 MOSFET.
Direct Newton iteration failed to find .op point.  (Use ".option noopiter" to skip.)
Starting Gmin stepping
Gmin = 10
Gmin = 1.07374
Gmin = 0.115292
Gmin = 0.0123794
Gmin = 0.00132923
Gmin = 0.000142725
Gmin = 1.5325e-005
Gmin = 1.6455e-006
vernier = 0.5
vernier = 0.25
vernier = 0.125
vernier = 0.0625
Gmin = 5.39199e-007
vernier = 0.03125
vernier = 0.015625
vernier = 0.0208333
Gmin = 5.20613e-007
vernier = 0.0277778
vernier = 0.037037
Gmin = 4.87204e-007
vernier = 0.0493827
Gmin = 4.37576e-007
vernier = 0.0658435
vernier = 0.0877914
Gmin = 3.67193e-007
vernier = 0.117055
vernier = 0.156073
Gmin = 2.785e-007
vernier = 0.208098
Gmin = 1.78476e-007
vernier = 0.277464
vernier = 0.369952
Gmin = 8.70052e-008
vernier = 0.493269
vernier = 0.657691
Gmin = 2.85214e-008
vernier = 0.876922
Gmin = 4.94524e-009
vernier = 1
Gmin = 5.44392e-010
Gmin = 5.84537e-011
Gmin = 6.27641e-012
Gmin = 6.73925e-013
Gmin = 0
Gmin stepping succeeded in finding the operating point.

Changing Tseed to 4.88281e-013
Changing Tseed to 4.88281e-015
Heightened Def Con from 4.88281e-015 to 3e-009



Date: Sat Feb 02 16:36:25 2019
Total elapsed time: 0.412 seconds.

tnom = 27
temp = 27
method = modified trap
totiter = 5549
traniter = 4021
tranpoints = 1803
accept = 1356
rejected = 446
matrix size = 112
fillins = 144
solver = Normal
Thread vector: 12.2/8.2[2] 2.7/2.5[1] 4.1/3.2[2] 0.5/1.3[1]  2592/500
Matrix Compiler1: 9.37 KB object code size  2.7/1.0/[0.6]
Matrix Compiler2: 12.27 KB object code size  1.8/2.0/[0.6]

